Version 4
SHEET 1 880 680
WIRE -128 160 -128 128
WIRE -64 160 -128 160
WIRE -16 160 -16 128
WIRE -16 160 -64 160
WIRE -64 176 -64 160
WIRE 304 240 208 240
WIRE 448 240 384 240
WIRE 512 240 448 240
WIRE 640 240 576 240
WIRE 720 240 640 240
WIRE 736 240 720 240
WIRE 448 272 448 240
WIRE 736 304 736 240
WIRE 208 320 208 240
WIRE 640 320 640 240
WIRE 400 352 384 352
WIRE 208 416 208 384
WIRE 448 416 448 368
WIRE 448 416 208 416
WIRE 640 416 640 384
WIRE 640 416 448 416
WIRE 736 416 736 384
WIRE 736 416 640 416
WIRE 448 448 448 416
FLAG 448 448 0
FLAG -64 176 0
FLAG -128 48 Uin
FLAG -16 48 PWM
FLAG 208 240 Uin
FLAG 384 352 PWM
FLAG 720 240 Uout
SYMBOL diode 512 256 R270
WINDOW 0 32 32 VTop 2
WINDOW 3 299 -334 VBottom 2
SYMATTR InstName D1
SYMATTR Value VS-E5TH1512
SYMBOL polcap 624 320 R0
SYMATTR InstName Cout
SYMATTR Value 93µ
SYMBOL Res 720 288 R0
SYMATTR InstName Load
SYMATTR Value 240
SYMBOL polcap 192 320 R0
SYMATTR InstName Cin
SYMATTR Value 4µ
SYMBOL Voltage -128 32 R0
SYMATTR InstName V1
SYMATTR Value 4
SYMBOL Voltage -16 32 R0
WINDOW 3 120 -38 Left 2
WINDOW 123 0 0 Left 0
WINDOW 39 0 0 Left 0
SYMATTR Value PULSE(0 4 0 0 0 {0.833*F} {F})
SYMATTR InstName V2
SYMBOL ind 288 256 R270
WINDOW 0 32 56 VTop 2
WINDOW 3 5 56 VBottom 2
SYMATTR InstName L1
SYMATTR Value 358µ
SYMATTR SpiceLine Ipk=1.5 Rser=600m Rpar=131.018K Cpar=0 mfg="Bourns, Inc." pn="SDR1307-391KL"
SYMBOL nmos 400 272 R0
WINDOW 0 60 44 Left 2
WINDOW 3 -189 -257 Right 2
SYMATTR InstName M1
SYMATTR Value IRLHM630
TEXT 104 32 Left 2 !.tran 20m
TEXT 112 -56 Left 2 !.param F=25u
