Version 4
SHEET 1 880 680
WIRE -128 160 -128 128
WIRE -64 160 -128 160
WIRE -16 160 -16 128
WIRE -16 160 -64 160
WIRE -64 176 -64 160
WIRE 272 240 208 240
WIRE 448 240 368 240
WIRE 496 240 448 240
WIRE 640 240 576 240
WIRE 720 240 640 240
WIRE 736 240 720 240
WIRE 736 304 736 240
WIRE 208 320 208 240
WIRE 448 320 448 240
WIRE 640 320 640 240
WIRE 208 416 208 384
WIRE 448 416 448 384
WIRE 448 416 208 416
WIRE 640 416 640 384
WIRE 640 416 448 416
WIRE 736 416 736 384
WIRE 736 416 640 416
WIRE 448 448 448 416
FLAG 448 448 0
FLAG -64 176 0
FLAG -128 48 Uin
FLAG -16 48 PWM
FLAG 208 240 Uin
FLAG 352 288 PWM
FLAG 720 240 Uout
SYMBOL schottky 464 384 R180
WINDOW 0 24 64 Left 2
WINDOW 3 247 439 Left 2
SYMATTR InstName D1
SYMATTR Value MBRS130L
SYMATTR Description Diode
SYMATTR Type diode
SYMBOL polcap 624 320 R0
SYMATTR InstName Cout
SYMATTR Value 6.66µ
SYMBOL Res 720 288 R0
SYMATTR InstName Load
SYMATTR Value 12
SYMBOL polcap 192 320 R0
SYMATTR InstName Cin
SYMATTR Value 10µ
SYMBOL Voltage -128 32 R0
SYMATTR InstName V1
SYMATTR Value 24
SYMBOL Voltage -16 32 R0
WINDOW 3 120 -38 Left 2
WINDOW 123 0 0 Left 0
WINDOW 39 0 0 Left 0
SYMATTR Value PULSE(0 24 0 0 0 {0.515*F} {F})
SYMATTR InstName V2
SYMBOL Ind 480 256 R270
WINDOW 0 32 56 VTop 2
WINDOW 3 5 56 VBottom 2
SYMATTR InstName L1
SYMATTR Value 44.4µ
SYMBOL nmos 272 288 R270
WINDOW 0 60 44 Left 2
WINDOW 3 367 -168 VRight 2
SYMATTR InstName M1
SYMATTR Value PSMN1R940PL
TEXT 104 32 Left 2 !.tran 1m startup
TEXT 104 -32 Left 2 !.param F=2.222u
