Version 4
SHEET 1 880 680
WIRE 192 112 16 112
WIRE 432 112 288 112
WIRE 432 144 432 112
WIRE 16 256 16 112
WIRE 32 256 16 256
WIRE 240 256 240 176
WIRE 240 256 112 256
WIRE 304 256 240 256
WIRE 432 256 432 224
WIRE 432 256 384 256
WIRE 240 288 240 256
FLAG 240 288 0
SYMBOL npn 288 176 M270
WINDOW 0 182 280 VLeft 2
WINDOW 3 156 280 VLeft 2
SYMATTR InstName Q1
SYMATTR Value BC337-40
SYMBOL Res 448 240 R180
WINDOW 0 36 76 Left 2
WINDOW 3 36 40 Left 2
SYMATTR InstName R2
SYMATTR Value 10k
SYMBOL Voltage 128 256 R90
WINDOW 0 -32 56 VBottom 2
WINDOW 3 -224 -37 VTop 2
WINDOW 123 0 0 Left 0
WINDOW 39 0 0 Left 0
SYMATTR InstName V1
SYMATTR Value PULSE(0 1.5 0 0 0 0.1 0.2)
SYMBOL Voltage 400 256 R90
WINDOW 0 -32 56 VBottom 2
WINDOW 3 32 56 VTop 2
WINDOW 123 0 0 Left 0
WINDOW 39 0 0 Left 0
SYMATTR InstName V2
SYMATTR Value 5
TEXT 8 72 Left 2 !.tran 0.6 startup
