Version 4
SHEET 1 2012 896
WIRE -48 128 -48 112
WIRE 16 128 -48 128
WIRE 64 128 64 112
WIRE 64 128 16 128
WIRE 16 144 16 128
WIRE 192 368 128 368
WIRE -320 400 -368 400
WIRE 128 400 128 368
WIRE 128 400 -96 400
WIRE 352 400 128 400
WIRE -368 416 -368 400
WIRE 304 432 128 432
WIRE 624 432 624 400
WIRE -320 464 -432 464
WIRE 128 464 128 432
WIRE 128 464 -96 464
WIRE 352 464 352 400
WIRE 224 480 176 480
WIRE 304 480 304 432
WIRE 304 480 288 480
WIRE 176 496 176 480
WIRE -320 528 -368 528
WIRE 16 528 -96 528
WIRE 80 528 16 528
WIRE 128 528 80 528
WIRE 624 544 624 512
WIRE -320 592 -368 592
WIRE -64 592 -96 592
WIRE 80 592 80 528
WIRE 176 592 176 576
WIRE 224 592 176 592
WIRE 304 592 304 480
WIRE 304 592 288 592
WIRE 352 592 352 544
WIRE 352 592 304 592
WIRE 416 624 400 624
WIRE 448 624 416 624
WIRE 576 624 528 624
WIRE -64 672 -64 656
WIRE 80 672 80 656
WIRE 624 672 624 640
WIRE -432 704 -432 464
WIRE 16 704 16 528
WIRE 16 704 -432 704
FLAG -368 416 0
FLAG 192 368 VCC
FLAG -368 592 VCC
FLAG -64 672 0
FLAG 624 672 0
FLAG 416 624 OUT
FLAG -368 528 OUT
FLAG 80 672 0
FLAG 16 144 0
FLAG -48 32 VCC
FLAG 64 32 +12
FLAG 624 400 +12
SYMBOL Misc/NE555 -208 496 R0
SYMATTR InstName U1
SYMBOL Cap -80 592 R0
SYMATTR InstName C2
SYMATTR Value 0.01µ
SYMBOL Res 544 608 R90
WINDOW 0 0 56 VBottom 2
WINDOW 3 32 56 VTop 2
SYMATTR InstName R3
SYMATTR Value 10
SYMBOL nmos 576 544 R0
WINDOW 3 -892 -425 Left 2
SYMATTR Value IRFZ44N
SYMATTR InstName M1
SYMBOL Cap 64 592 R0
SYMATTR InstName C1
SYMATTR Value 0.1µ
SYMBOL Res 336 448 R0
SYMATTR InstName R2
SYMATTR Value 1k
SYMBOL diode 288 464 R90
WINDOW 0 0 32 VBottom 2
WINDOW 3 32 32 VTop 2
SYMATTR InstName D2
SYMATTR Value 1N4148
SYMBOL pot 192 592 R180
WINDOW 3 305 533 Left 2
SYMATTR Value Rtot=50K wiper=.25
SYMATTR InstName R1
SYMBOL diode 224 608 R270
WINDOW 0 32 32 VTop 2
WINDOW 3 0 32 VBottom 2
SYMATTR InstName D1
SYMATTR Value 1N4148
SYMBOL Voltage -48 16 R0
SYMATTR InstName V1
SYMATTR Value 5
SYMBOL Voltage 64 16 R0
SYMATTR InstName V2
SYMATTR Value 12
SYMBOL Res 608 416 R0
SYMATTR InstName RLoad
SYMATTR Value 50
TEXT -320 24 Left 2 !.tran 100m startup
TEXT -320 88 Left 2 !.include pot.sub
