Version 4
SHEET 1 976 680
WIRE 80 -80 80 -96
WIRE 80 -64 80 -80
WIRE 80 48 80 16
WIRE 640 144 640 112
WIRE 864 144 864 112
WIRE 224 224 192 224
WIRE 480 224 448 224
WIRE 864 240 864 224
WIRE -128 256 -160 256
WIRE -16 256 -64 256
WIRE 112 288 80 288
WIRE 224 288 112 288
WIRE 544 288 448 288
WIRE 640 288 640 224
WIRE 640 288 544 288
WIRE 688 288 640 288
WIRE 800 288 768 288
WIRE -16 304 -16 256
WIRE 224 352 32 352
WIRE 528 352 448 352
WIRE 528 368 528 352
WIRE 608 368 528 368
WIRE 864 368 864 336
WIRE 864 368 672 368
WIRE -160 416 -160 256
WIRE -128 416 -160 416
WIRE -16 416 -16 384
WIRE -16 416 -64 416
WIRE 224 416 192 416
WIRE 720 416 448 416
WIRE 864 416 864 368
WIRE 864 416 784 416
WIRE -160 480 -160 416
WIRE 80 480 80 288
WIRE 80 480 -160 480
WIRE 528 480 528 368
WIRE 528 480 80 480
WIRE 864 480 864 416
FLAG 80 48 0
FLAG 80 -80 VCC
FLAG 480 224 VCC
FLAG 192 224 0
FLAG 192 416 VCC
FLAG 640 112 VCC
FLAG 864 480 0
FLAG 864 112 VCC
FLAG 112 288 Carrier
FLAG 544 288 OUT
SYMBOL Misc/NE555 336 320 R0
SYMATTR InstName U1
SYMBOL Voltage 80 -80 R0
SYMATTR InstName V1
SYMATTR Value 12
SYMBOL pot -32 288 R0
WINDOW 3 247 -213 Left 2
SYMATTR Value Rtot=10K wiper=.25
SYMATTR InstName U2
SYMBOL Diode -128 272 R270
WINDOW 0 32 32 VTop 2
WINDOW 3 0 32 VBottom 2
SYMATTR InstName D1
SYMBOL Diode -64 400 R90
WINDOW 0 0 32 VBottom 2
WINDOW 3 32 32 VTop 2
SYMATTR InstName D2
SYMBOL Res 624 128 R0
SYMATTR InstName R1
SYMATTR Value 10k
SYMBOL Res 672 304 R270
WINDOW 0 32 56 VTop 2
WINDOW 3 0 56 VBottom 2
SYMATTR InstName R2
SYMATTR Value 1k
SYMBOL npn 800 240 R0
SYMATTR InstName Q1
SYMATTR Value BC337-40
SYMBOL Cap 672 352 R90
WINDOW 0 0 32 VBottom 2
WINDOW 3 32 32 VTop 2
SYMATTR InstName C1
SYMATTR Value 22n
SYMBOL Cap 784 400 R90
WINDOW 0 0 32 VBottom 2
WINDOW 3 32 32 VTop 2
SYMATTR InstName C2
SYMATTR Value 10n
SYMBOL Res 848 128 R0
SYMATTR InstName R3
SYMATTR Value 50
TEXT 224 -16 Left 2 !.include pot.sub
TEXT 224 32 Left 2 !.tran 1m startup
