Version 4
SHEET 1 1028 680
WIRE 192 0 176 0
WIRE 288 0 256 0
WIRE 176 48 176 0
WIRE 176 48 48 48
WIRE 288 48 288 0
WIRE 528 48 288 48
WIRE 176 96 176 48
WIRE 192 96 176 96
WIRE 288 96 288 48
WIRE 288 96 272 96
WIRE 48 144 48 48
WIRE 448 144 432 144
WIRE 528 144 528 48
WIRE 528 144 512 144
WIRE 560 144 528 144
WIRE 640 144 624 144
WIRE 432 192 432 144
WIRE 432 192 384 192
WIRE 640 192 640 144
WIRE 704 192 640 192
WIRE 800 192 704 192
WIRE 848 192 800 192
WIRE 992 192 848 192
WIRE 704 224 704 192
WIRE 848 224 848 192
WIRE 992 224 992 192
WIRE 432 240 432 192
WIRE 448 240 432 240
WIRE 528 240 512 240
WIRE 560 240 528 240
WIRE 640 240 640 192
WIRE 640 240 624 240
WIRE 800 272 800 192
WIRE 384 368 384 192
WIRE 704 368 704 288
WIRE 704 368 384 368
WIRE 800 368 800 336
WIRE 800 368 704 368
WIRE 848 368 848 288
WIRE 848 368 800 368
WIRE 992 368 992 304
WIRE 992 368 848 368
WIRE 48 400 48 224
WIRE 192 400 48 400
WIRE 528 400 528 240
WIRE 528 400 272 400
FLAG 992 192 out
FLAG 992 368 0
SYMBOL voltage 48 128 R0
WINDOW 123 0 0 Left 0
WINDOW 39 0 0 Left 0
SYMATTR InstName V1
SYMATTR Value SINE(0 325 50)
SYMBOL res 288 80 R90
WINDOW 0 0 56 VBottom 2
WINDOW 3 32 56 VTop 2
SYMATTR InstName R1
SYMATTR Value 523k
SYMBOL cap 256 -16 R90
WINDOW 0 0 32 VBottom 2
WINDOW 3 32 32 VTop 2
SYMATTR InstName C1
SYMATTR Value 8.2µ
SYMBOL diode 448 160 R270
WINDOW 0 32 32 VTop 2
WINDOW 3 0 32 VBottom 2
SYMATTR InstName D1
SYMATTR Value 1N4007
SYMBOL diode 560 160 R270
WINDOW 0 32 32 VTop 2
WINDOW 3 0 32 VBottom 2
SYMATTR InstName D2
SYMATTR Value 1N4007
SYMBOL diode 448 256 R270
WINDOW 0 32 32 VTop 2
WINDOW 3 0 32 VBottom 2
SYMATTR InstName D3
SYMATTR Value 1N4007
SYMBOL diode 560 256 R270
WINDOW 0 32 32 VTop 2
WINDOW 3 0 32 VBottom 2
SYMATTR InstName D4
SYMATTR Value 1N4007
SYMBOL polcap 688 224 R0
WINDOW 0 24 -22 Left 2
WINDOW 3 22 1 Left 2
SYMATTR InstName C2
SYMATTR Value 3300µ
SYMBOL res 288 384 R90
WINDOW 0 0 56 VBottom 2
WINDOW 3 32 56 VTop 2
SYMATTR InstName R2
SYMATTR Value 10
SYMBOL res 1008 320 R180
WINDOW 0 36 76 Left 2
WINDOW 3 36 40 Left 2
SYMATTR InstName R3
SYMATTR Value 18
SYMBOL polcap 832 224 R0
WINDOW 0 26 -20 Left 2
WINDOW 3 25 0 Left 2
SYMATTR InstName C3
SYMATTR Value 3300µ
SYMBOL zener 816 336 R180
WINDOW 0 24 64 Left 2
WINDOW 3 -57 -70 Left 2
SYMATTR InstName D5
SYMATTR Value BZX84C9V1LY
TEXT 14 450 Left 2 !.tran 3
