Version 4
SHEET 1 892 680
WIRE 432 160 432 144
WIRE 304 240 272 240
WIRE 560 240 528 240
WIRE 272 256 272 240
WIRE 304 304 192 304
WIRE 720 304 720 272
WIRE 720 304 528 304
WIRE 720 352 720 304
WIRE 304 368 272 368
WIRE 640 368 528 368
WIRE 304 432 272 432
WIRE 544 432 528 432
WIRE 544 448 544 432
WIRE 640 448 640 368
WIRE 720 448 720 432
WIRE 720 448 640 448
WIRE 720 464 720 448
WIRE 544 544 544 512
WIRE 720 560 720 528
WIRE 192 576 192 304
WIRE 640 576 640 448
WIRE 640 576 192 576
FLAG 432 160 0
FLAG 432 64 VCC
FLAG 272 256 0
FLAG 560 240 VCC
FLAG 544 544 0
FLAG 272 368 OUT
FLAG 272 432 VCC
FLAG 720 560 0
FLAG 720 192 VCC
SYMBOL Misc/NE555 416 336 R0
SYMATTR InstName U1
SYMBOL Voltage 432 48 R0
SYMATTR InstName V1
SYMATTR Value 10
SYMBOL Cap 528 448 R0
SYMATTR InstName C2
SYMATTR Value 0.01µF
SYMBOL res 704 176 R0
SYMATTR InstName R1
SYMATTR Value 5k
SYMBOL res 704 336 R0
SYMATTR InstName R2
SYMATTR Value 5k
SYMBOL cap 704 464 R0
SYMATTR InstName C1
SYMATTR Value 10µ
TEXT 304 96 Left 2 !.tran 0.5
