Version 4
SHEET 1 892 680
WIRE 368 -80 368 -96
WIRE 224 112 224 96
WIRE 368 112 368 96
WIRE 208 176 96 176
WIRE 576 176 208 176
WIRE 208 208 208 176
WIRE 304 240 272 240
WIRE 576 240 576 176
WIRE 576 240 528 240
WIRE 608 240 576 240
WIRE 272 256 272 240
WIRE 208 304 208 288
WIRE 208 304 160 304
WIRE 304 304 208 304
WIRE 304 368 160 368
WIRE 640 368 528 368
WIRE 96 432 96 176
WIRE 192 432 96 432
WIRE 288 432 272 432
WIRE 304 432 288 432
WIRE 544 432 528 432
WIRE 544 448 544 432
WIRE 288 496 288 432
WIRE 288 496 160 496
WIRE 544 528 544 512
WIRE 640 528 640 368
WIRE 640 528 544 528
WIRE 544 544 544 528
FLAG 224 112 0
FLAG 224 16 VCC
FLAG 272 256 0
FLAG 608 240 VCC
FLAG 544 544 0
FLAG 368 112 0
FLAG 368 16 IN1
FLAG 160 368 OUT
FLAG 160 496 IN2
FLAG 160 304 IN1
FLAG 368 -80 0
FLAG 368 -176 IN2
SYMBOL Misc/NE555 416 336 R0
SYMATTR InstName U1
SYMBOL Voltage 224 0 R0
SYMATTR InstName V1
SYMATTR Value 10
SYMBOL Cap 528 448 R0
SYMATTR InstName C2
SYMATTR Value 0.01µF
SYMBOL Voltage 368 0 R0
SYMATTR InstName V2
SYMATTR Value PULSE(9 0 0.5 0.1 0.1 0.01 0.5 1)
SYMBOL Res 288 416 R90
WINDOW 0 0 56 VBottom 2
WINDOW 3 32 56 VTop 2
SYMATTR InstName R1
SYMATTR Value 10k
SYMBOL Res 224 304 R180
WINDOW 0 36 76 Left 2
WINDOW 3 36 40 Left 2
SYMATTR InstName R2
SYMATTR Value 10k
SYMBOL Voltage 368 -192 R0
SYMATTR InstName V3
SYMATTR Value PULSE(0 8 0.01 0 0.1 1 0.5 1)
TEXT 96 48 Left 2 !.tran 2
