Version 4
SHEET 1 892 680
WIRE 336 128 336 112
WIRE 480 128 480 112
WIRE 304 240 272 240
WIRE 656 240 528 240
WIRE 720 240 656 240
WIRE 272 256 272 240
WIRE 304 304 240 304
WIRE 576 304 528 304
WIRE 576 336 576 304
WIRE 656 336 656 320
WIRE 656 336 576 336
WIRE 656 352 656 336
WIRE 304 368 272 368
WIRE 576 368 576 336
WIRE 576 368 528 368
WIRE 304 432 272 432
WIRE 544 432 528 432
WIRE 656 432 656 416
WIRE 544 448 544 432
WIRE 544 528 544 512
FLAG 336 128 0
FLAG 336 32 VCC
FLAG 272 256 0
FLAG 720 240 VCC
FLAG 272 432 VCC
FLAG 544 528 0
FLAG 656 432 0
FLAG 480 128 0
FLAG 480 32 IN
FLAG 240 304 IN
FLAG 272 368 OUT
SYMBOL Misc/NE555 416 336 R0
SYMATTR InstName U1
SYMBOL Voltage 336 16 R0
SYMATTR InstName V1
SYMATTR Value 12
SYMBOL Cap 528 448 R0
SYMATTR InstName C1
SYMATTR Value 0.01µF
SYMBOL Res 640 224 R0
SYMATTR InstName R1
SYMATTR Value 100k
SYMBOL Cap 640 352 R0
SYMATTR InstName C2
SYMATTR Value 10µF
SYMBOL Voltage 480 16 R0
SYMATTR InstName V2
SYMATTR Value PULSE(10 0 0.5 0.1 0.1 0.01 0.5)
TEXT 208 64 Left 2 !.tran 3
