Version 4
SHEET 1 880 680
WIRE -224 48 -224 32
WIRE -128 48 -128 32
WIRE -16 48 -16 32
WIRE 112 160 80 160
WIRE 240 176 176 176
WIRE 336 176 240 176
WIRE 112 192 80 192
WIRE 240 192 240 176
WIRE 80 288 80 192
WIRE 240 288 240 272
WIRE 240 288 80 288
WIRE 240 304 240 288
WIRE 240 400 240 384
FLAG 144 144 +
FLAG 144 208 -
FLAG -224 48 0
FLAG -128 48 0
FLAG -224 -48 +
FLAG -128 -48 -
FLAG -16 48 0
FLAG -16 -48 Vin
FLAG 240 400 0
FLAG 336 176 Vout
FLAG 256 32 Vin
FLAG 80 160 Vinn
FLAG 256 -48 Vinn
SYMBOL voltage -224 -64 R0
WINDOW 123 0 0 Left 0
WINDOW 39 0 0 Left 0
SYMATTR InstName V1
SYMATTR Value 5
SYMBOL voltage -128 -64 R0
WINDOW 123 0 0 Left 0
WINDOW 39 0 0 Left 0
SYMATTR InstName V2
SYMATTR Value -5
SYMBOL voltage -16 -64 R0
WINDOW 123 0 0 Left 0
WINDOW 39 0 0 Left 0
SYMATTR InstName V3
SYMATTR Value SINE(0 2 50)
SYMBOL res 224 176 R0
SYMATTR InstName R1
SYMATTR Value 250k
SYMBOL res 224 288 R0
SYMATTR InstName R2
SYMATTR Value 10k
SYMBOL EXTRA\\ExtraOpamps\\LM358_NS 144 176 R0
SYMATTR InstName U1
SYMBOL bv 256 -64 R0
SYMATTR InstName B1
SYMATTR Value V=RAND(1000*time)
TEXT -256 424 Left 2 !.tran 0.1
TEXT 312 0 Left 2 !.param time=2
