Version 4
SHEET 1 880 680
WIRE 144 112 16 112
WIRE 272 112 208 112
WIRE 16 160 16 112
WIRE 272 160 272 112
WIRE 16 272 16 240
WIRE 144 272 16 272
WIRE 272 272 272 240
WIRE 272 272 144 272
FLAG 144 272 0
FLAG 272 112 Out
SYMBOL cap 208 96 R90
WINDOW 0 0 32 VBottom 2
WINDOW 3 32 32 VTop 2
SYMATTR InstName C1
SYMATTR Value 1µ
SYMBOL res 256 144 R0
SYMATTR InstName R1
SYMATTR Value 1k
SYMBOL voltage 16 144 R0
WINDOW 3 -5 -145 Left 2
WINDOW 39 0 0 Left 0
SYMATTR Value PULSE(-2 2 0 1n 1n {F/2} {F} 0)
SYMATTR Value2 AC 2
SYMATTR InstName V1
TEXT 8 -32 Left 2 !.param F=0.1
TEXT -16 296 Left 2 !;ac oct 10 1 10000
TEXT 8 -56 Left 2 !.ac oct 10 1 10000
